# DIS package for  MODFLOW-2005, generated by Flopy.
         1        11        11        10         4         2
  0
CONSTANT    9.090909E+01                           #delr                          
CONSTANT    9.090909E+01                           #delc                          
CONSTANT    0.000000E+00                           #model_top                     
CONSTANT   -5.000000E+01                           #botm layer 1                  
      1.000000             1  1.000000  SS 
      1.000000             1  1.000000  SS 
      1.000000             1  1.000000  SS 
      1.000000             1  1.000000  SS 
      1.000000             1  1.000000  SS 
      1.000000             1  1.000000  SS 
      1.000000             1  1.000000  SS 
      1.000000             1  1.000000  SS 
      1.000000             1  1.000000  SS 
      1.000000             1  1.000000  SS 
