# WEL package for  MODFLOW-2005, generated by Flopy.
         1         0
         0         0 # stress period 1
         1         0 # stress period 2
         1         5         8  -5.0000000E+03
        -1         0 # stress period 3
